/*--------------------------------*- C++ -*----------------------------------*\
| =========                 |                                                 |
| \\      /  F ield         | OpenFOAM: The Open Source CFD Toolbox           |
   \\    /   O peration     | Website:  https://openfoam.org
    \\  /    A nd           | Version:  11
|    \\/     M anipulation  |                                                 |
\*---------------------------------------------------------------------------*/
FoamFile
{
    format      ascii;
    class       dictionary;
    location    "constant";
    object      physicalProperties;
}
// * * * * * * * * * * * * * * * * * * * * * * * * * * * * * * * * * * * * * //

thermoType
{
    type            heRhoThermo;
    mixture         pureMixture;
    transport       const;
    thermo          hConst;
    equationOfState rhoConst;
    specie          specie;
    energy          sensibleEnthalpy;
}

mixture
{
    specie
    {
        molWeight       18.01;
    }
    thermodynamics
    {
        Cp              4.162279e+3;
        Hf              0;
    }
    equationOfState
    {
        rho             1000;
    }
    transport
    {
        mu              1e-3;
        Pr              0.289;
    }
}


viscosityModel  constant;

nu              1e-6;

rho             1000;

// ************************************************************************* //
