/*--------------------------------*- C++ -*----------------------------------*\
| =========                 |                                                 |
| \\      /  F ield         | OpenFOAM: The Open Source CFD Toolbox           |
   \\    /   O peration     | Website:  https://openfoam.org
    \\  /    A nd           | Version:  11
|    \\/     M anipulation  |                                                 |
\*---------------------------------------------------------------------------*/
FoamFile
{
    format      ascii;
    class       dictionary;
    location    "constant";
    object      porousProperties;
}
// * * * * * * * * * * * * * * * * * * * * * * * * * * * * * * * * * * * * * //

absolutePermeabilityModel absolutePermeabilityConst;

absolutePermeabilityConstParameters
{
    initial_permeability (
        1e-8  0     0
        0     1e-8  0
        0     0     1e-8 
    );
}

geochemistryModel geochemistryTransportOnly;

geochemistryTransportOnlyParameters
{
    initial_porosity 0.2;
}

solutes (tracer);

tracerProperties
{
    dispersionModel dispersionConst;
    dispersionConstParameters
    {
        initial_dispersion (
            1e-5 0    0
            0    1e-5 0
            0    0    1e-5
        );
    }
}

// ************************************************************************* //
