/*--------------------------------*- C++ -*----------------------------------*\
  =========                 |
  \\      /  F ield         | OpenFOAM: The Open Source CFD Toolbox
   \\    /   O peration     | Website:  https://openfoam.org
    \\  /    A nd           | Version:  11
     \\/     M anipulation  |
\*---------------------------------------------------------------------------*/
FoamFile
{
    format      ascii;
    class       dictionary;
    location    "system";
    object      fvSolution;
}
// * * * * * * * * * * * * * * * * * * * * * * * * * * * * * * * * * * * * * //

solvers
{
    p
    {
        solver PCG;
        preconditioner DIC;
        tolerance 1e-5;
        relTol 0;
    }
    pFinal
    {
        $p;
        relTol          0;
    }
    ddtSchemes
    {}
    "(U|h)"
    {
        solver          smoothSolver;
        smoother        symGaussSeidel;
        tolerance       1e-6;
        relTol          0.1;
    }
    "(U|h)Final"
    {
        $U;
        relTol          0;
    }
    "(rho|rhoFinal)"
    {
        $p;
        tolerance       1e-05;
        relTol          0;
    }
    C.tracer
    {
        solver          PBiCG;
        preconditioner  DILU;
        tolerance       1e-8;
        relTol          0.001;
    }
    C.tracerFinal
    {
        $C.tracer;
        relTol          0;
    }
}

PIMPLE
{
    momentumPredictor yes;
    nOuterCorrectors 1;
    nCorrectors     2;
    nNonOrthogonalCorrectors 0;
}

// ************************************************************************* //
